
_cell_length_a   26.3430000
_cell_length_b   26.3430000
_cell_length_c   26.3430000
_cell_angle_alpha   90.0000000
_cell_angle_beta   90.0000000
_cell_angle_gamma   90.0000000

_symmetry_space_group_name_Hall 'P 1'
_symmetry_space_group_name_H-M  'P 1'

loop_
_symmetry_equiv_pos_as_xyz
 'x,y,z' 

loop_
_atom_site_label
_atom_site_type_symbol
_atom_site_fract_x
_atom_site_fract_y
_atom_site_fract_z
_atom_site_charge
Cu  Cu     0.2850000    0.2850000    0.0000000    0.6334535
O   O      0.3170000    0.2430000    0.9480000   -0.4733604
C   C      0.3220000    0.1780000    0.8870000   -0.0245271
C   C      0.2970000    0.2030000    0.9310000    0.6118600
C   C      0.3660000    0.1990000    0.8660000   -0.1340124
H   H      0.3800000    0.2280000    0.8800000    0.1774408
Cu  Cu     0.7150000    0.2850000    0.0000000    0.6334799
Cu  Cu     0.7150000    0.7150000    0.0000000    0.6335064
Cu  Cu     0.2850000    0.7150000    0.0000000    0.6334799
Cu  Cu    -0.0000000    0.2850000    0.2850000    0.6334535
Cu  Cu     0.7150000   -0.0000000    0.2850000    0.6334799
Cu  Cu    -0.0000000    0.7150000    0.2850000    0.6334799
Cu  Cu     0.2850000   -0.0000000    0.2850000    0.6334535
Cu  Cu    -0.0000000    0.7150000    0.7150000    0.6335064
Cu  Cu     0.2850000   -0.0000000    0.7150000    0.6334799
Cu  Cu    -0.0000000    0.2850000    0.7150000    0.6334799
Cu  Cu     0.7150000   -0.0000000    0.7150000    0.6335064
Cu  Cu     0.2850000    0.7850000    0.5000000    0.6334535
Cu  Cu     0.7150000    0.7850000    0.5000000    0.6334799
Cu  Cu     0.7150000    0.2150000    0.5000000    0.6335064
Cu  Cu     0.2850000    0.2150000    0.5000000    0.6334799
Cu  Cu    -0.0000000    0.7850000    0.7850000    0.6334535
Cu  Cu     0.7150000    0.5000000    0.7850000    0.6334800
Cu  Cu    -0.0000000    0.2150000    0.7850000    0.6334800
Cu  Cu     0.2850000    0.5000000    0.7850000    0.6334535
Cu  Cu    -0.0000000    0.2150000    0.2150000    0.6335064
Cu  Cu     0.2850000    0.5000000    0.2150000    0.6334799
Cu  Cu    -0.0000000    0.7850000    0.2150000    0.6334800
Cu  Cu     0.7150000    0.5000000    0.2150000    0.6335064
Cu  Cu     0.7850000    0.2850000    0.5000000    0.6334535
Cu  Cu     0.2150000    0.2850000    0.5000000    0.6334799
Cu  Cu     0.2150000    0.7150000    0.5000000    0.6335064
Cu  Cu     0.7850000    0.7150000    0.5000000    0.6334799
Cu  Cu     0.5000000    0.2850000    0.7850000    0.6334535
Cu  Cu     0.2150000   -0.0000000    0.7850000    0.6334799
Cu  Cu     0.5000000    0.7150000    0.7850000    0.6334799
Cu  Cu     0.7850000   -0.0000000    0.7850000    0.6334535
Cu  Cu     0.5000000    0.7150000    0.2150000    0.6335064
Cu  Cu     0.7850000   -0.0000000    0.2150000    0.6334800
Cu  Cu     0.5000000    0.2850000    0.2150000    0.6334799
Cu  Cu     0.2150000   -0.0000000    0.2150000    0.6335064
Cu  Cu     0.7850000    0.7850000    0.0000000    0.6334535
Cu  Cu     0.2150000    0.7850000    0.0000000    0.6334799
Cu  Cu     0.2150000    0.2150000    0.0000000    0.6335064
Cu  Cu     0.7850000    0.2150000    0.0000000    0.6334800
Cu  Cu     0.5000000    0.7850000    0.2850000    0.6334535
Cu  Cu     0.2150000    0.5000000    0.2850000    0.6334799
Cu  Cu     0.5000000    0.2150000    0.2850000    0.6334799
Cu  Cu     0.7850000    0.5000000    0.2850000    0.6334535
Cu  Cu     0.5000000    0.2150000    0.7150000    0.6335064
Cu  Cu     0.7850000    0.5000000    0.7150000    0.6334800
Cu  Cu     0.5000000    0.7850000    0.7150000    0.6334800
Cu  Cu     0.2150000    0.5000000    0.7150000    0.6335064
O   O      0.7570000    0.3170000    0.9480000   -0.4732704
O   O      0.6830000    0.7570000    0.9480000   -0.4732564
O   O      0.2430000    0.6830000    0.9480000   -0.4733462
O   O      0.3170000    0.7570000    0.0520000   -0.4733332
O   O      0.2430000    0.3170000    0.0520000   -0.4734226
O   O      0.6830000    0.2430000    0.0520000   -0.4734098
O   O      0.7570000    0.6830000    0.0520000   -0.4733207
O   O      0.9480000    0.3170000    0.2430000   -0.4733604
O   O      0.6830000    0.9480000    0.2430000   -0.4733462
O   O      0.0520000    0.6830000    0.2430000   -0.4734098
O   O      0.3170000    0.0520000    0.2430000   -0.4734226
O   O      0.9480000    0.6830000    0.7570000   -0.4732564
O   O      0.3170000    0.9480000    0.7570000   -0.4732704
O   O      0.0520000    0.3170000    0.7570000   -0.4733332
O   O      0.6830000    0.0520000    0.7570000   -0.4733207
O   O      0.2430000    0.9480000    0.3170000   -0.4733604
O   O      0.2430000    0.0520000    0.6830000   -0.4734098
O   O      0.9480000    0.2430000    0.6830000   -0.4733462
O   O      0.7570000    0.9480000    0.6830000   -0.4732564
O   O      0.0520000    0.7570000    0.6830000   -0.4733207
O   O      0.7570000    0.0520000    0.3170000   -0.4733332
O   O      0.9480000    0.7570000    0.3170000   -0.4732704
O   O      0.0520000    0.2430000    0.3170000   -0.4734226
O   O      0.6830000    0.7570000    0.0520000   -0.4733207
O   O      0.2430000    0.6830000    0.0520000   -0.4734098
O   O      0.3170000    0.2430000    0.0520000   -0.4734226
O   O      0.7570000    0.3170000    0.0520000   -0.4733332
O   O      0.6830000    0.2430000    0.9480000   -0.4733462
O   O      0.7570000    0.6830000    0.9480000   -0.4732564
O   O      0.3170000    0.7570000    0.9480000   -0.4732704
O   O      0.2430000    0.3170000    0.9480000   -0.4733604
O   O      0.0520000    0.6830000    0.7570000   -0.4733207
O   O      0.3170000    0.0520000    0.7570000   -0.4733332
O   O      0.9480000    0.3170000    0.7570000   -0.4732704
O   O      0.6830000    0.9480000    0.7570000   -0.4732564
O   O      0.0520000    0.3170000    0.2430000   -0.4734226
O   O      0.6830000    0.0520000    0.2430000   -0.4734098
O   O      0.9480000    0.6830000    0.2430000   -0.4733462
O   O      0.3170000    0.9480000    0.2430000   -0.4733604
O   O      0.7570000    0.0520000    0.6830000   -0.4733207
O   O      0.7570000    0.9480000    0.3170000   -0.4732704
O   O      0.0520000    0.7570000    0.3170000   -0.4733332
O   O      0.2430000    0.0520000    0.3170000   -0.4734226
O   O      0.9480000    0.2430000    0.3170000   -0.4733604
O   O      0.2430000    0.9480000    0.6830000   -0.4733462
O   O      0.0520000    0.2430000    0.6830000   -0.4734098
O   O      0.9480000    0.7570000    0.6830000   -0.4732564
O   O      0.3170000    0.7430000    0.4480000   -0.4733604
O   O      0.7570000    0.8170000    0.4480000   -0.4732704
O   O      0.6830000    0.2570000    0.4480000   -0.4732564
O   O      0.2430000    0.1830000    0.4480000   -0.4733462
O   O      0.3170000    0.2570000    0.5520000   -0.4733332
O   O      0.2430000    0.8170000    0.5520000   -0.4734226
O   O      0.6830000    0.7430000    0.5520000   -0.4734098
O   O      0.7570000    0.1830000    0.5520000   -0.4733207
O   O      0.9480000    0.8170000    0.7430000   -0.4733604
O   O      0.6830000    0.4480000    0.7430000   -0.4733462
O   O      0.0520000    0.1830000    0.7430000   -0.4734098
O   O      0.3170000    0.5520000    0.7430000   -0.4734226
O   O      0.9480000    0.1830000    0.2570000   -0.4732564
O   O      0.3170000    0.4480000    0.2570000   -0.4732704
O   O      0.0520000    0.8170000    0.2570000   -0.4733332
O   O      0.6830000    0.5520000    0.2570000   -0.4733207
O   O      0.2430000    0.4480000    0.8170000   -0.4733604
O   O      0.2430000    0.5520000    0.1830000   -0.4734098
O   O      0.9480000    0.7430000    0.1830000   -0.4733462
O   O      0.7570000    0.4480000    0.1830000   -0.4732564
O   O      0.0520000    0.2570000    0.1830000   -0.4733207
O   O      0.7570000    0.5520000    0.8170000   -0.4733332
O   O      0.9480000    0.2570000    0.8170000   -0.4732704
O   O      0.0520000    0.7430000    0.8170000   -0.4734226
O   O      0.6830000    0.2570000    0.5520000   -0.4733207
O   O      0.2430000    0.1830000    0.5520000   -0.4734098
O   O      0.3170000    0.7430000    0.5520000   -0.4734226
O   O      0.7570000    0.8170000    0.5520000   -0.4733332
O   O      0.6830000    0.7430000    0.4480000   -0.4733462
O   O      0.7570000    0.1830000    0.4480000   -0.4732564
O   O      0.3170000    0.2570000    0.4480000   -0.4732704
O   O      0.2430000    0.8170000    0.4480000   -0.4733604
O   O      0.0520000    0.1830000    0.2570000   -0.4733207
O   O      0.3170000    0.5520000    0.2570000   -0.4733332
O   O      0.9480000    0.8170000    0.2570000   -0.4732704
O   O      0.6830000    0.4480000    0.2570000   -0.4732564
O   O      0.0520000    0.8170000    0.7430000   -0.4734226
O   O      0.6830000    0.5520000    0.7430000   -0.4734098
O   O      0.9480000    0.1830000    0.7430000   -0.4733462
O   O      0.3170000    0.4480000    0.7430000   -0.4733604
O   O      0.7570000    0.5520000    0.1830000   -0.4733207
O   O      0.7570000    0.4480000    0.8170000   -0.4732704
O   O      0.0520000    0.2570000    0.8170000   -0.4733332
O   O      0.2430000    0.5520000    0.8170000   -0.4734226
O   O      0.9480000    0.7430000    0.8170000   -0.4733604
O   O      0.2430000    0.4480000    0.1830000   -0.4733462
O   O      0.0520000    0.7430000    0.1830000   -0.4734098
O   O      0.9480000    0.2570000    0.1830000   -0.4732564
O   O      0.8170000    0.2430000    0.4480000   -0.4733604
O   O      0.2570000    0.3170000    0.4480000   -0.4732704
O   O      0.1830000    0.7570000    0.4480000   -0.4732564
O   O      0.7430000    0.6830000    0.4480000   -0.4733462
O   O      0.8170000    0.7570000    0.5520000   -0.4733332
O   O      0.7430000    0.3170000    0.5520000   -0.4734226
O   O      0.1830000    0.2430000    0.5520000   -0.4734098
O   O      0.2570000    0.6830000    0.5520000   -0.4733207
O   O      0.4480000    0.3170000    0.7430000   -0.4733604
O   O      0.1830000    0.9480000    0.7430000   -0.4733462
O   O      0.5520000    0.6830000    0.7430000   -0.4734098
O   O      0.8170000    0.0520000    0.7430000   -0.4734226
O   O      0.4480000    0.6830000    0.2570000   -0.4732564
O   O      0.8170000    0.9480000    0.2570000   -0.4732704
O   O      0.5520000    0.3170000    0.2570000   -0.4733332
O   O      0.1830000    0.0520000    0.2570000   -0.4733207
O   O      0.7430000    0.9480000    0.8170000   -0.4733604
O   O      0.7430000    0.0520000    0.1830000   -0.4734098
O   O      0.4480000    0.2430000    0.1830000   -0.4733462
O   O      0.2570000    0.9480000    0.1830000   -0.4732564
O   O      0.5520000    0.7570000    0.1830000   -0.4733207
O   O      0.2570000    0.0520000    0.8170000   -0.4733332
O   O      0.4480000    0.7570000    0.8170000   -0.4732704
O   O      0.5520000    0.2430000    0.8170000   -0.4734226
O   O      0.1830000    0.7570000    0.5520000   -0.4733207
O   O      0.7430000    0.6830000    0.5520000   -0.4734098
O   O      0.8170000    0.2430000    0.5520000   -0.4734226
O   O      0.2570000    0.3170000    0.5520000   -0.4733332
O   O      0.1830000    0.2430000    0.4480000   -0.4733462
O   O      0.2570000    0.6830000    0.4480000   -0.4732564
O   O      0.8170000    0.7570000    0.4480000   -0.4732704
O   O      0.7430000    0.3170000    0.4480000   -0.4733604
O   O      0.5520000    0.6830000    0.2570000   -0.4733207
O   O      0.8170000    0.0520000    0.2570000   -0.4733332
O   O      0.4480000    0.3170000    0.2570000   -0.4732704
O   O      0.1830000    0.9480000    0.2570000   -0.4732564
O   O      0.5520000    0.3170000    0.7430000   -0.4734226
O   O      0.1830000    0.0520000    0.7430000   -0.4734098
O   O      0.4480000    0.6830000    0.7430000   -0.4733462
O   O      0.8170000    0.9480000    0.7430000   -0.4733604
O   O      0.2570000    0.0520000    0.1830000   -0.4733207
O   O      0.2570000    0.9480000    0.8170000   -0.4732704
O   O      0.5520000    0.7570000    0.8170000   -0.4733332
O   O      0.7430000    0.0520000    0.8170000   -0.4734226
O   O      0.4480000    0.2430000    0.8170000   -0.4733604
O   O      0.7430000    0.9480000    0.1830000   -0.4733462
O   O      0.5520000    0.2430000    0.1830000   -0.4734098
O   O      0.4480000    0.7570000    0.1830000   -0.4732564
O   O      0.8170000    0.7430000    0.9480000   -0.4733604
O   O      0.2570000    0.8170000    0.9480000   -0.4732704
O   O      0.1830000    0.2570000    0.9480000   -0.4732564
O   O      0.7430000    0.1830000    0.9480000   -0.4733462
O   O      0.8170000    0.2570000    0.0520000   -0.4733332
O   O      0.7430000    0.8170000    0.0520000   -0.4734226
O   O      0.1830000    0.7430000    0.0520000   -0.4734098
O   O      0.2570000    0.1830000    0.0520000   -0.4733207
O   O      0.4480000    0.8170000    0.2430000   -0.4733604
O   O      0.1830000    0.4480000    0.2430000   -0.4733462
O   O      0.5520000    0.1830000    0.2430000   -0.4734098
O   O      0.8170000    0.5520000    0.2430000   -0.4734226
O   O      0.4480000    0.1830000    0.7570000   -0.4732564
O   O      0.8170000    0.4480000    0.7570000   -0.4732704
O   O      0.5520000    0.8170000    0.7570000   -0.4733332
O   O      0.1830000    0.5520000    0.7570000   -0.4733207
O   O      0.7430000    0.4480000    0.3170000   -0.4733604
O   O      0.7430000    0.5520000    0.6830000   -0.4734098
O   O      0.4480000    0.7430000    0.6830000   -0.4733462
O   O      0.2570000    0.4480000    0.6830000   -0.4732564
O   O      0.5520000    0.2570000    0.6830000   -0.4733207
O   O      0.2570000    0.5520000    0.3170000   -0.4733332
O   O      0.4480000    0.2570000    0.3170000   -0.4732704
O   O      0.5520000    0.7430000    0.3170000   -0.4734226
O   O      0.1830000    0.2570000    0.0520000   -0.4733207
O   O      0.7430000    0.1830000    0.0520000   -0.4734098
O   O      0.8170000    0.7430000    0.0520000   -0.4734226
O   O      0.2570000    0.8170000    0.0520000   -0.4733332
O   O      0.1830000    0.7430000    0.9480000   -0.4733462
O   O      0.2570000    0.1830000    0.9480000   -0.4732564
O   O      0.8170000    0.2570000    0.9480000   -0.4732704
O   O      0.7430000    0.8170000    0.9480000   -0.4733604
O   O      0.5520000    0.1830000    0.7570000   -0.4733207
O   O      0.8170000    0.5520000    0.7570000   -0.4733332
O   O      0.4480000    0.8170000    0.7570000   -0.4732704
O   O      0.1830000    0.4480000    0.7570000   -0.4732564
O   O      0.5520000    0.8170000    0.2430000   -0.4734226
O   O      0.1830000    0.5520000    0.2430000   -0.4734098
O   O      0.4480000    0.1830000    0.2430000   -0.4733462
O   O      0.8170000    0.4480000    0.2430000   -0.4733604
O   O      0.2570000    0.5520000    0.6830000   -0.4733207
O   O      0.2570000    0.4480000    0.3170000   -0.4732704
O   O      0.5520000    0.2570000    0.3170000   -0.4733332
O   O      0.7430000    0.5520000    0.3170000   -0.4734226
O   O      0.4480000    0.7430000    0.3170000   -0.4733604
O   O      0.7430000    0.4480000    0.6830000   -0.4733462
O   O      0.5520000    0.7430000    0.6830000   -0.4734098
O   O      0.4480000    0.2570000    0.6830000   -0.4732564
C   C      0.8220000    0.3220000    0.8870000   -0.0251863
C   C      0.6780000    0.8220000    0.8870000   -0.0245271
C   C      0.1780000    0.6780000    0.8870000   -0.0238809
C   C      0.3220000    0.8220000    0.1130000   -0.0262117
C   C      0.1780000    0.3220000    0.1130000   -0.0255684
C   C      0.6780000    0.1780000    0.1130000   -0.0249381
C   C      0.8220000    0.6780000    0.1130000   -0.0255684
C   C      0.8870000    0.3220000    0.1780000   -0.0245271
C   C      0.6780000    0.8870000    0.1780000   -0.0238809
C   C      0.1130000    0.6780000    0.1780000   -0.0249381
C   C      0.3220000    0.1130000    0.1780000   -0.0255684
C   C      0.8870000    0.6780000    0.8220000   -0.0245271
C   C      0.3220000    0.8870000    0.8220000   -0.0251863
C   C      0.1130000    0.3220000    0.8220000   -0.0262117
C   C      0.6780000    0.1130000    0.8220000   -0.0255684
C   C      0.1780000    0.8870000    0.3220000   -0.0245271
C   C      0.1780000    0.1130000    0.6780000   -0.0249381
C   C      0.8870000    0.1780000    0.6780000   -0.0238809
C   C      0.8220000    0.8870000    0.6780000   -0.0245271
C   C      0.1130000    0.8220000    0.6780000   -0.0255684
C   C      0.8220000    0.1130000    0.3220000   -0.0262117
C   C      0.8870000    0.8220000    0.3220000   -0.0251863
C   C      0.1130000    0.1780000    0.3220000   -0.0255684
C   C      0.6780000    0.8220000    0.1130000   -0.0255684
C   C      0.1780000    0.6780000    0.1130000   -0.0249381
C   C      0.3220000    0.1780000    0.1130000   -0.0255684
C   C      0.8220000    0.3220000    0.1130000   -0.0262117
C   C      0.6780000    0.1780000    0.8870000   -0.0238809
C   C      0.8220000    0.6780000    0.8870000   -0.0245271
C   C      0.3220000    0.8220000    0.8870000   -0.0251863
C   C      0.1780000    0.3220000    0.8870000   -0.0245271
C   C      0.1130000    0.6780000    0.8220000   -0.0255684
C   C      0.3220000    0.1130000    0.8220000   -0.0262117
C   C      0.8870000    0.3220000    0.8220000   -0.0251863
C   C      0.6780000    0.8870000    0.8220000   -0.0245271
C   C      0.1130000    0.3220000    0.1780000   -0.0255684
C   C      0.6780000    0.1130000    0.1780000   -0.0249381
C   C      0.8870000    0.6780000    0.1780000   -0.0238809
C   C      0.3220000    0.8870000    0.1780000   -0.0245271
C   C      0.8220000    0.1130000    0.6780000   -0.0255684
C   C      0.8220000    0.8870000    0.3220000   -0.0251863
C   C      0.1130000    0.8220000    0.3220000   -0.0262117
C   C      0.1780000    0.1130000    0.3220000   -0.0255684
C   C      0.8870000    0.1780000    0.3220000   -0.0245271
C   C      0.1780000    0.8870000    0.6780000   -0.0238809
C   C      0.1130000    0.1780000    0.6780000   -0.0249381
C   C      0.8870000    0.8220000    0.6780000   -0.0245271
C   C      0.3220000    0.6780000    0.3870000   -0.0245271
C   C      0.8220000    0.8220000    0.3870000   -0.0251863
C   C      0.6780000    0.3220000    0.3870000   -0.0245271
C   C      0.1780000    0.1780000    0.3870000   -0.0238809
C   C      0.3220000    0.3220000    0.6130000   -0.0262117
C   C      0.1780000    0.8220000    0.6130000   -0.0255684
C   C      0.6780000    0.6780000    0.6130000   -0.0249381
C   C      0.8220000    0.1780000    0.6130000   -0.0255684
C   C      0.6780000    0.3870000    0.6780000   -0.0238809
C   C      0.3220000    0.6130000    0.6780000   -0.0255684
C   C      0.3220000    0.3870000    0.3220000   -0.0251863
C   C      0.6780000    0.6130000    0.3220000   -0.0255684
C   C      0.1780000    0.3870000    0.8220000   -0.0245271
C   C      0.1780000    0.6130000    0.1780000   -0.0249381
C   C      0.8220000    0.3870000    0.1780000   -0.0245271
C   C      0.8220000    0.6130000    0.8220000   -0.0262117
C   C      0.6780000    0.3220000    0.6130000   -0.0255684
C   C      0.1780000    0.1780000    0.6130000   -0.0249381
C   C      0.3220000    0.6780000    0.6130000   -0.0255684
C   C      0.8220000    0.8220000    0.6130000   -0.0262117
C   C      0.6780000    0.6780000    0.3870000   -0.0238809
C   C      0.8220000    0.1780000    0.3870000   -0.0245271
C   C      0.3220000    0.3220000    0.3870000   -0.0251863
C   C      0.1780000    0.8220000    0.3870000   -0.0245271
C   C      0.3220000    0.6130000    0.3220000   -0.0262117
C   C      0.6780000    0.3870000    0.3220000   -0.0245271
C   C      0.6780000    0.6130000    0.6780000   -0.0249381
C   C      0.3220000    0.3870000    0.6780000   -0.0245271
C   C      0.8220000    0.6130000    0.1780000   -0.0255684
C   C      0.8220000    0.3870000    0.8220000   -0.0251863
C   C      0.1780000    0.6130000    0.8220000   -0.0255684
C   C      0.1780000    0.3870000    0.1780000   -0.0238809
C   C      0.3870000    0.3220000    0.6780000   -0.0245271
C   C      0.6130000    0.6780000    0.6780000   -0.0249381
C   C      0.3870000    0.6780000    0.3220000   -0.0245271
C   C      0.6130000    0.3220000    0.3220000   -0.0262117
C   C      0.3870000    0.1780000    0.1780000   -0.0238809
C   C      0.6130000    0.8220000    0.1780000   -0.0255684
C   C      0.3870000    0.8220000    0.8220000   -0.0251863
C   C      0.6130000    0.1780000    0.8220000   -0.0255684
C   C      0.6130000    0.6780000    0.3220000   -0.0255684
C   C      0.3870000    0.3220000    0.3220000   -0.0251863
C   C      0.6130000    0.3220000    0.6780000   -0.0255684
C   C      0.3870000    0.6780000    0.6780000   -0.0238809
C   C      0.6130000    0.8220000    0.8220000   -0.0262117
C   C      0.3870000    0.1780000    0.8220000   -0.0245271
C   C      0.6130000    0.1780000    0.1780000   -0.0249381
C   C      0.3870000    0.8220000    0.1780000   -0.0245271
C   C      0.7970000    0.2970000    0.9310000    0.6117486
C   C      0.7030000    0.7970000    0.9310000    0.6118600
C   C      0.2030000    0.7030000    0.9310000    0.6119691
C   C      0.2970000    0.7970000    0.0690000    0.6112160
C   C      0.2030000    0.2970000    0.0690000    0.6113200
C   C      0.7030000    0.2030000    0.0690000    0.6114218
C   C      0.7970000    0.7030000    0.0690000    0.6113200
C   C      0.9310000    0.2970000    0.2030000    0.6118600
C   C      0.7030000    0.9310000    0.2030000    0.6119691
C   C      0.0690000    0.7030000    0.2030000    0.6114218
C   C      0.2970000    0.0690000    0.2030000    0.6113200
C   C      0.9310000    0.7030000    0.7970000    0.6118600
C   C      0.2970000    0.9310000    0.7970000    0.6117486
C   C      0.0690000    0.2970000    0.7970000    0.6112160
C   C      0.7030000    0.0690000    0.7970000    0.6113200
C   C      0.2030000    0.9310000    0.2970000    0.6118600
C   C      0.2030000    0.0690000    0.7030000    0.6114218
C   C      0.9310000    0.2030000    0.7030000    0.6119691
C   C      0.7970000    0.9310000    0.7030000    0.6118600
C   C      0.0690000    0.7970000    0.7030000    0.6113200
C   C      0.7970000    0.0690000    0.2970000    0.6112160
C   C      0.9310000    0.7970000    0.2970000    0.6117486
C   C      0.0690000    0.2030000    0.2970000    0.6113200
C   C      0.7030000    0.7970000    0.0690000    0.6113200
C   C      0.2030000    0.7030000    0.0690000    0.6114218
C   C      0.2970000    0.2030000    0.0690000    0.6113200
C   C      0.7970000    0.2970000    0.0690000    0.6112160
C   C      0.7030000    0.2030000    0.9310000    0.6119691
C   C      0.7970000    0.7030000    0.9310000    0.6118600
C   C      0.2970000    0.7970000    0.9310000    0.6117486
C   C      0.2030000    0.2970000    0.9310000    0.6118600
C   C      0.0690000    0.7030000    0.7970000    0.6113200
C   C      0.2970000    0.0690000    0.7970000    0.6112160
C   C      0.9310000    0.2970000    0.7970000    0.6117486
C   C      0.7030000    0.9310000    0.7970000    0.6118600
C   C      0.0690000    0.2970000    0.2030000    0.6113200
C   C      0.7030000    0.0690000    0.2030000    0.6114218
C   C      0.9310000    0.7030000    0.2030000    0.6119691
C   C      0.2970000    0.9310000    0.2030000    0.6118600
C   C      0.7970000    0.0690000    0.7030000    0.6113200
C   C      0.7970000    0.9310000    0.2970000    0.6117486
C   C      0.0690000    0.7970000    0.2970000    0.6112160
C   C      0.2030000    0.0690000    0.2970000    0.6113200
C   C      0.9310000    0.2030000    0.2970000    0.6118600
C   C      0.2030000    0.9310000    0.7030000    0.6119691
C   C      0.0690000    0.2030000    0.7030000    0.6114218
C   C      0.9310000    0.7970000    0.7030000    0.6118600
C   C      0.2970000    0.7030000    0.4310000    0.6118600
C   C      0.7970000    0.7970000    0.4310000    0.6117486
C   C      0.7030000    0.2970000    0.4310000    0.6118600
C   C      0.2030000    0.2030000    0.4310000    0.6119691
C   C      0.2970000    0.2970000    0.5690000    0.6112160
C   C      0.2030000    0.7970000    0.5690000    0.6113200
C   C      0.7030000    0.7030000    0.5690000    0.6114218
C   C      0.7970000    0.2030000    0.5690000    0.6113200
C   C      0.7030000    0.4310000    0.7030000    0.6119691
C   C      0.2970000    0.5690000    0.7030000    0.6113200
C   C      0.2970000    0.4310000    0.2970000    0.6117486
C   C      0.7030000    0.5690000    0.2970000    0.6113200
C   C      0.2030000    0.4310000    0.7970000    0.6118600
C   C      0.2030000    0.5690000    0.2030000    0.6114218
C   C      0.7970000    0.4310000    0.2030000    0.6118600
C   C      0.7970000    0.5690000    0.7970000    0.6112160
C   C      0.7030000    0.2970000    0.5690000    0.6113200
C   C      0.2030000    0.2030000    0.5690000    0.6114218
C   C      0.2970000    0.7030000    0.5690000    0.6113200
C   C      0.7970000    0.7970000    0.5690000    0.6112160
C   C      0.7030000    0.7030000    0.4310000    0.6119691
C   C      0.7970000    0.2030000    0.4310000    0.6118600
C   C      0.2970000    0.2970000    0.4310000    0.6117486
C   C      0.2030000    0.7970000    0.4310000    0.6118600
C   C      0.2970000    0.5690000    0.2970000    0.6112160
C   C      0.7030000    0.4310000    0.2970000    0.6118600
C   C      0.7030000    0.5690000    0.7030000    0.6114218
C   C      0.2970000    0.4310000    0.7030000    0.6118600
C   C      0.7970000    0.5690000    0.2030000    0.6113200
C   C      0.7970000    0.4310000    0.7970000    0.6117486
C   C      0.2030000    0.5690000    0.7970000    0.6113200
C   C      0.2030000    0.4310000    0.2030000    0.6119691
C   C      0.4310000    0.2970000    0.7030000    0.6118600
C   C      0.5690000    0.7030000    0.7030000    0.6114218
C   C      0.4310000    0.7030000    0.2970000    0.6118600
C   C      0.5690000    0.2970000    0.2970000    0.6112160
C   C      0.4310000    0.2030000    0.2030000    0.6119691
C   C      0.5690000    0.7970000    0.2030000    0.6113200
C   C      0.4310000    0.7970000    0.7970000    0.6117486
C   C      0.5690000    0.2030000    0.7970000    0.6113200
C   C      0.5690000    0.7030000    0.2970000    0.6113200
C   C      0.4310000    0.2970000    0.2970000    0.6117486
C   C      0.5690000    0.2970000    0.7030000    0.6113200
C   C      0.4310000    0.7030000    0.7030000    0.6119691
C   C      0.5690000    0.7970000    0.7970000    0.6112160
C   C      0.4310000    0.2030000    0.7970000    0.6118600
C   C      0.5690000    0.2030000    0.2030000    0.6114218
C   C      0.4310000    0.7970000    0.2030000    0.6118600
C   C      0.8010000    0.3660000    0.8660000   -0.1343856
C   C      0.6350000    0.8010000    0.8660000   -0.1338477
C   C      0.1990000    0.6350000    0.8660000   -0.1334572
C   C      0.3660000    0.8010000    0.1350000   -0.1338477
C   C      0.1990000    0.3660000    0.1350000   -0.1334572
C   C      0.6350000    0.1990000    0.1350000   -0.1328792
C   C      0.8010000    0.6350000    0.1350000   -0.1332869
C   C      0.8660000    0.3660000    0.1990000   -0.1340124
C   C      0.6350000    0.8660000    0.1990000   -0.1334572
C   C      0.1350000    0.6350000    0.1990000   -0.1328792
C   C      0.3660000    0.1350000    0.1990000   -0.1334572
C   C      0.8660000    0.6350000    0.8010000   -0.1338477
C   C      0.3660000    0.8660000    0.8010000   -0.1343856
C   C      0.1350000    0.3660000    0.8010000   -0.1338477
C   C      0.6350000    0.1350000    0.8010000   -0.1332869
C   C      0.1990000    0.8660000    0.3660000   -0.1340124
C   C      0.1990000    0.1350000    0.6350000   -0.1328792
C   C      0.8660000    0.1990000    0.6350000   -0.1334572
C   C      0.8010000    0.8660000    0.6350000   -0.1338477
C   C      0.1350000    0.8010000    0.6350000   -0.1332869
C   C      0.8010000    0.1350000    0.3660000   -0.1338477
C   C      0.8660000    0.8010000    0.3660000   -0.1343856
C   C      0.1350000    0.1990000    0.3660000   -0.1334572
C   C      0.6350000    0.8010000    0.1350000   -0.1332869
C   C      0.1990000    0.6350000    0.1350000   -0.1328792
C   C      0.3660000    0.1990000    0.1350000   -0.1334572
C   C      0.8010000    0.3660000    0.1350000   -0.1338477
C   C      0.6350000    0.1990000    0.8660000   -0.1334572
C   C      0.8010000    0.6350000    0.8660000   -0.1338477
C   C      0.3660000    0.8010000    0.8660000   -0.1343856
C   C      0.1990000    0.3660000    0.8660000   -0.1340124
C   C      0.1350000    0.6350000    0.8010000   -0.1332869
C   C      0.3660000    0.1350000    0.8010000   -0.1338477
C   C      0.8660000    0.3660000    0.8010000   -0.1343856
C   C      0.6350000    0.8660000    0.8010000   -0.1338477
C   C      0.1350000    0.3660000    0.1990000   -0.1334572
C   C      0.6350000    0.1350000    0.1990000   -0.1328792
C   C      0.8660000    0.6350000    0.1990000   -0.1334572
C   C      0.3660000    0.8660000    0.1990000   -0.1340124
C   C      0.8010000    0.1350000    0.6350000   -0.1332869
C   C      0.8010000    0.8660000    0.3660000   -0.1343856
C   C      0.1350000    0.8010000    0.3660000   -0.1338477
C   C      0.1990000    0.1350000    0.3660000   -0.1334572
C   C      0.8660000    0.1990000    0.3660000   -0.1340124
C   C      0.1990000    0.8660000    0.6350000   -0.1334572
C   C      0.1350000    0.1990000    0.6350000   -0.1328792
C   C      0.8660000    0.8010000    0.6350000   -0.1338477
C   C      0.3660000    0.6990000    0.3660000   -0.1340124
C   C      0.6350000    0.3010000    0.3660000   -0.1338477
C   C      0.3660000    0.3010000    0.6350000   -0.1338477
C   C      0.6350000    0.6990000    0.6350000   -0.1328792
C   C      0.8660000    0.8660000    0.6990000   -0.1340124
C   C      0.6350000    0.3660000    0.6990000   -0.1334572
C   C      0.1350000    0.1350000    0.6990000   -0.1328792
C   C      0.3660000    0.6350000    0.6990000   -0.1334572
C   C      0.8660000    0.1350000    0.3010000   -0.1338477
C   C      0.3660000    0.3660000    0.3010000   -0.1343856
C   C      0.1350000    0.8660000    0.3010000   -0.1338477
C   C      0.6350000    0.6350000    0.3010000   -0.1332869
C   C      0.8660000    0.6990000    0.1350000   -0.1334572
C   C      0.1350000    0.3010000    0.1350000   -0.1332869
C   C      0.8660000    0.3010000    0.8660000   -0.1343856
C   C      0.1350000    0.6990000    0.8660000   -0.1334572
C   C      0.6350000    0.3010000    0.6350000   -0.1332869
C   C      0.3660000    0.6990000    0.6350000   -0.1334572
C   C      0.6350000    0.6990000    0.3660000   -0.1334572
C   C      0.3660000    0.3010000    0.3660000   -0.1343856
C   C      0.1350000    0.1350000    0.3010000   -0.1332869
C   C      0.3660000    0.6350000    0.3010000   -0.1338477
C   C      0.8660000    0.8660000    0.3010000   -0.1343856
C   C      0.6350000    0.3660000    0.3010000   -0.1338477
C   C      0.1350000    0.8660000    0.6990000   -0.1334572
C   C      0.6350000    0.6350000    0.6990000   -0.1328792
C   C      0.8660000    0.1350000    0.6990000   -0.1334572
C   C      0.3660000    0.3660000    0.6990000   -0.1340124
C   C      0.1350000    0.3010000    0.8660000   -0.1338477
C   C      0.8660000    0.6990000    0.8660000   -0.1340124
C   C      0.1350000    0.6990000    0.1350000   -0.1328792
C   C      0.8660000    0.3010000    0.1350000   -0.1338477
C   C      0.3010000    0.3660000    0.3660000   -0.1343856
C   C      0.6990000    0.6350000    0.3660000   -0.1334572
C   C      0.6990000    0.3660000    0.6350000   -0.1334572
C   C      0.3010000    0.6350000    0.6350000   -0.1332869
C   C      0.6990000    0.8660000    0.8660000   -0.1340124
C   C      0.6990000    0.1350000    0.1350000   -0.1328792
C   C      0.3010000    0.8660000    0.1350000   -0.1338477
C   C      0.3010000    0.1350000    0.8660000   -0.1338477
C   C      0.6990000    0.6350000    0.6350000   -0.1328792
C   C      0.3010000    0.3660000    0.6350000   -0.1338477
C   C      0.3010000    0.6350000    0.3660000   -0.1338477
C   C      0.6990000    0.3660000    0.3660000   -0.1340124
C   C      0.3010000    0.1350000    0.1350000   -0.1332869
C   C      0.3010000    0.8660000    0.8660000   -0.1343856
C   C      0.6990000    0.1350000    0.8660000   -0.1334572
C   C      0.6990000    0.8660000    0.1350000   -0.1334572
H   H      0.7720000    0.3800000    0.8800000    0.1775753
H   H      0.6200000    0.7720000    0.8800000    0.1771170
H   H      0.2280000    0.6200000    0.8800000    0.1769792
H   H      0.3800000    0.7720000    0.1200000    0.1771170
H   H      0.2280000    0.3800000    0.1200000    0.1769792
H   H      0.6200000    0.2280000    0.1200000    0.1765183
H   H      0.7720000    0.6200000    0.1200000    0.1766592
H   H      0.8800000    0.3800000    0.2280000    0.1774408
H   H      0.6200000    0.8800000    0.2280000    0.1769792
H   H      0.1200000    0.6200000    0.2280000    0.1765183
H   H      0.3800000    0.1200000    0.2280000    0.1769792
H   H      0.8800000    0.6200000    0.7720000    0.1771170
H   H      0.3800000    0.8800000    0.7720000    0.1775753
H   H      0.1200000    0.3800000    0.7720000    0.1771170
H   H      0.6200000    0.1200000    0.7720000    0.1766592
H   H      0.2280000    0.8800000    0.3800000    0.1774408
H   H      0.2280000    0.1200000    0.6200000    0.1765183
H   H      0.8800000    0.2280000    0.6200000    0.1769792
H   H      0.7720000    0.8800000    0.6200000    0.1771170
H   H      0.1200000    0.7720000    0.6200000    0.1766592
H   H      0.7720000    0.1200000    0.3800000    0.1771170
H   H      0.8800000    0.7720000    0.3800000    0.1775753
H   H      0.1200000    0.2280000    0.3800000    0.1769792
H   H      0.6200000    0.7720000    0.1200000    0.1766592
H   H      0.2280000    0.6200000    0.1200000    0.1765183
H   H      0.3800000    0.2280000    0.1200000    0.1769792
H   H      0.7720000    0.3800000    0.1200000    0.1771170
H   H      0.6200000    0.2280000    0.8800000    0.1769792
H   H      0.7720000    0.6200000    0.8800000    0.1771170
H   H      0.3800000    0.7720000    0.8800000    0.1775753
H   H      0.2280000    0.3800000    0.8800000    0.1774408
H   H      0.1200000    0.6200000    0.7720000    0.1766592
H   H      0.3800000    0.1200000    0.7720000    0.1771170
H   H      0.8800000    0.3800000    0.7720000    0.1775753
H   H      0.6200000    0.8800000    0.7720000    0.1771170
H   H      0.1200000    0.3800000    0.2280000    0.1769792
H   H      0.6200000    0.1200000    0.2280000    0.1765183
H   H      0.8800000    0.6200000    0.2280000    0.1769792
H   H      0.3800000    0.8800000    0.2280000    0.1774408
H   H      0.7720000    0.1200000    0.6200000    0.1766592
H   H      0.7720000    0.8800000    0.3800000    0.1775753
H   H      0.1200000    0.7720000    0.3800000    0.1771170
H   H      0.2280000    0.1200000    0.3800000    0.1769792
H   H      0.8800000    0.2280000    0.3800000    0.1774408
H   H      0.2280000    0.8800000    0.6200000    0.1769792
H   H      0.1200000    0.2280000    0.6200000    0.1765183
H   H      0.8800000    0.7720000    0.6200000    0.1771170
H   H      0.3800000    0.7280000    0.3800000    0.1774408
H   H      0.6200000    0.2720000    0.3800000    0.1771170
H   H      0.3800000    0.2720000    0.6200000    0.1771170
H   H      0.6200000    0.7280000    0.6200000    0.1765183
H   H      0.8800000    0.8800000    0.7280000    0.1774408
H   H      0.6200000    0.3800000    0.7280000    0.1769792
H   H      0.1200000    0.1200000    0.7280000    0.1765183
H   H      0.3800000    0.6200000    0.7280000    0.1769792
H   H      0.8800000    0.1200000    0.2720000    0.1771170
H   H      0.3800000    0.3800000    0.2720000    0.1775753
H   H      0.1200000    0.8800000    0.2720000    0.1771170
H   H      0.6200000    0.6200000    0.2720000    0.1766592
H   H      0.8800000    0.7280000    0.1200000    0.1769792
H   H      0.1200000    0.2720000    0.1200000    0.1766592
H   H      0.8800000    0.2720000    0.8800000    0.1775753
H   H      0.1200000    0.7280000    0.8800000    0.1769792
H   H      0.6200000    0.2720000    0.6200000    0.1766592
H   H      0.3800000    0.7280000    0.6200000    0.1769792
H   H      0.6200000    0.7280000    0.3800000    0.1769792
H   H      0.3800000    0.2720000    0.3800000    0.1775753
H   H      0.1200000    0.1200000    0.2720000    0.1766592
H   H      0.3800000    0.6200000    0.2720000    0.1771170
H   H      0.8800000    0.8800000    0.2720000    0.1775753
H   H      0.6200000    0.3800000    0.2720000    0.1771170
H   H      0.1200000    0.8800000    0.7280000    0.1769792
H   H      0.6200000    0.6200000    0.7280000    0.1765183
H   H      0.8800000    0.1200000    0.7280000    0.1769792
H   H      0.3800000    0.3800000    0.7280000    0.1774408
H   H      0.1200000    0.2720000    0.8800000    0.1771170
H   H      0.8800000    0.7280000    0.8800000    0.1774408
H   H      0.1200000    0.7280000    0.1200000    0.1765183
H   H      0.8800000    0.2720000    0.1200000    0.1771170
H   H      0.2720000    0.3800000    0.3800000    0.1775753
H   H      0.7280000    0.6200000    0.3800000    0.1769792
H   H      0.7280000    0.3800000    0.6200000    0.1769792
H   H      0.2720000    0.6200000    0.6200000    0.1766592
H   H      0.7280000    0.8800000    0.8800000    0.1774408
H   H      0.7280000    0.1200000    0.1200000    0.1765183
H   H      0.2720000    0.8800000    0.1200000    0.1771170
H   H      0.2720000    0.1200000    0.8800000    0.1771170
H   H      0.7280000    0.6200000    0.6200000    0.1765183
H   H      0.2720000    0.3800000    0.6200000    0.1771170
H   H      0.2720000    0.6200000    0.3800000    0.1771170
H   H      0.7280000    0.3800000    0.3800000    0.1774408
H   H      0.2720000    0.1200000    0.1200000    0.1766592
H   H      0.2720000    0.8800000    0.8800000    0.1775753
H   H      0.7280000    0.1200000    0.8800000    0.1769792
H   H      0.7280000    0.8800000    0.1200000    0.1769792
